204

Au 0.0 0.0 -4.2675
Au 0.0 0.0 -1.4225
Au 0.0 0.0 1.4225
Au 0.0 0.0 4.2675
Au 2.46384227377 0.0 -5.69
Au 0.761369134053 2.34325324959 -5.69
Au -1.99329027094 1.44821015249 -5.69
Au -1.99329027094 -1.44821015249 -5.69
Au 0.761369134053 -2.34325324959 -5.69
Au 2.46384227377 0.0 -2.845
Au 0.761369134053 2.34325324959 -2.845
Au -1.99329027094 1.44821015249 -2.845
Au -1.99329027094 -1.44821015249 -2.845
Au 0.761369134053 -2.34325324959 -2.845
Au 2.46384227377 0.0 0.0
Au 0.761369134053 2.34325324959 0.0
Au -1.99329027094 1.44821015249 0.0
Au -1.99329027094 -1.44821015249 0.0
Au 0.761369134053 -2.34325324959 0.0
Au 2.46384227377 0.0 2.845
Au 0.761369134053 2.34325324959 2.845
Au -1.99329027094 1.44821015249 2.845
Au -1.99329027094 -1.44821015249 2.845
Au 0.761369134053 -2.34325324959 2.845
Au 2.46384227377 0.0 5.69
Au 0.761369134053 2.34325324959 5.69
Au -1.99329027094 1.44821015249 5.69
Au -1.99329027094 -1.44821015249 5.69
Au 0.761369134053 -2.34325324959 5.69
Au 4.92768454753 0.0 -4.2675
Au 3.22521140782 2.34325324959 -4.2675
Au 1.52273826811 4.68650649918 -4.2675
Au -1.23192113688 3.79146340208 -4.2675
Au -3.98658054187 2.89642030499 -4.2675
Au -3.98658054187 6.31716901012e-16 -4.2675
Au -3.98658054187 -2.89642030499 -4.2675
Au -1.23192113688 -3.79146340208 -4.2675
Au 1.52273826811 -4.68650649918 -4.2675
Au 3.22521140782 -2.34325324959 -4.2675
Au 4.92768454753 0.0 -1.4225
Au 3.22521140782 2.34325324959 -1.4225
Au 1.52273826811 4.68650649918 -1.4225
Au -1.23192113688 3.79146340208 -1.4225
Au -3.98658054187 2.89642030499 -1.4225
Au -3.98658054187 6.31716901012e-16 -1.4225
Au -3.98658054187 -2.89642030499 -1.4225
Au -1.23192113688 -3.79146340208 -1.4225
Au 1.52273826811 -4.68650649918 -1.4225
Au 3.22521140782 -2.34325324959 -1.4225
Au 4.92768454753 0.0 1.4225
Au 3.22521140782 2.34325324959 1.4225
Au 1.52273826811 4.68650649918 1.4225
Au -1.23192113688 3.79146340208 1.4225
Au -3.98658054187 2.89642030499 1.4225
Au -3.98658054187 6.31716901012e-16 1.4225
Au -3.98658054187 -2.89642030499 1.4225
Au -1.23192113688 -3.79146340208 1.4225
Au 1.52273826811 -4.68650649918 1.4225
Au 3.22521140782 -2.34325324959 1.4225
Au 4.92768454753 0.0 4.2675
Au 3.22521140782 2.34325324959 4.2675
Au 1.52273826811 4.68650649918 4.2675
Au -1.23192113688 3.79146340208 4.2675
Au -3.98658054187 2.89642030499 4.2675
Au -3.98658054187 6.31716901012e-16 4.2675
Au -3.98658054187 -2.89642030499 4.2675
Au -1.23192113688 -3.79146340208 4.2675
Au 1.52273826811 -4.68650649918 4.2675
Au 3.22521140782 -2.34325324959 4.2675
Au 7.3915268213 0.0 -2.845
Au 5.68905368159 2.34325324959 -2.845
Au 3.98658054187 4.68650649918 -2.845
Au 2.28410740216 7.02975974877 -2.845
Au -0.47055200283 6.13471665167 -2.845
Au -3.22521140782 5.23967355458 -2.845
Au -5.97987081281 4.34463045748 -2.845
Au -5.97987081281 1.44821015249 -2.845
Au -5.97987081281 -1.44821015249 -2.845
Au -5.97987081281 -4.34463045748 -2.845
Au -3.22521140782 -5.23967355458 -2.845
Au -0.47055200283 -6.13471665167 -2.845
Au 2.28410740216 -7.02975974877 -2.845
Au 3.98658054187 -4.68650649918 -2.845
Au 5.68905368159 -2.34325324959 -2.845
Au 7.3915268213 0.0 0.0
Au 5.68905368159 2.34325324959 0.0
Au 3.98658054187 4.68650649918 0.0
Au 2.28410740216 7.02975974877 0.0
Au -0.47055200283 6.13471665167 0.0
Au -3.22521140782 5.23967355458 0.0
Au -5.97987081281 4.34463045748 0.0
Au -5.97987081281 1.44821015249 0.0
Au -5.97987081281 -1.44821015249 0.0
Au -5.97987081281 -4.34463045748 0.0
Au -3.22521140782 -5.23967355458 0.0
Au -0.47055200283 -6.13471665167 0.0
Au 2.28410740216 -7.02975974877 0.0
Au 3.98658054187 -4.68650649918 0.0
Au 5.68905368159 -2.34325324959 0.0
Au 7.3915268213 0.0 2.845
Au 5.68905368159 2.34325324959 2.845
Au 3.98658054187 4.68650649918 2.845
Au 2.28410740216 7.02975974877 2.845
Au -0.47055200283 6.13471665167 2.845
Au -3.22521140782 5.23967355458 2.845
Au -5.97987081281 4.34463045748 2.845
Au -5.97987081281 1.44821015249 2.845
Au -5.97987081281 -1.44821015249 2.845
Au -5.97987081281 -4.34463045748 2.845
Au -3.22521140782 -5.23967355458 2.845
Au -0.47055200283 -6.13471665167 2.845
Au 2.28410740216 -7.02975974877 2.845
Au 3.98658054187 -4.68650649918 2.845
Au 5.68905368159 -2.34325324959 2.845
Au -5.2672      1.4482       6.062
S -7.0715      2.1657      4.7744
S -3.4629     0.73071      7.3496
Au -6.2639     -2.1723      5.3508
S -7.6704     -3.7771       4.347
S -4.8573    -0.56752      6.3545
Au -3.005     -4.5619       6.062
S -4.2449     -6.0562      4.7744
S -1.7651     -3.0676      7.3496
Au 0.13036     -6.6286      5.3508
S 1.222     -8.4622       4.347
S -0.96126      -4.795      6.3545
Au 3.41     -4.2676       6.062
S 4.448     -5.9086      4.7744
S 2.3721     -2.6266      7.3496
Au 6.3444     -1.9244      5.3508
S 8.4256     -1.4528       4.347
S 4.2632     -2.3959      6.3545
Au 5.1125      1.9244       6.062
S 6.9939      2.4044      4.7744
S 3.2311      1.4443      7.3496
Au 3.7907      5.4392      5.3508
S 3.9854      7.5643       4.347
S 3.5961      3.3142      6.3545
Au -0.25033      5.4569       6.062
S -0.1255      7.3946      4.7744
S -0.37516      3.5192      7.3496
Au -4.0016       5.286      5.3508
S -5.9625      6.1278       4.347
S -2.0407      4.4442      6.3545
Au -0.25033     -5.4569      -6.062
S -0.1255     -7.3946     -4.7744
S -0.37516     -3.5192     -7.3496
Au -5.2672     -1.4482      -6.062
S -7.0715     -2.1657     -4.7744
S -3.4629    -0.73071     -7.3496
Au -3.005      4.5619      -6.062
S -4.2449      6.0562     -4.7744
S -1.7651      3.0676     -7.3496
Au 3.41      4.2676      -6.062
S 4.448      5.9086     -4.7744
S 2.3721      2.6266     -7.3496
Au 5.1125     -1.9244      -6.062
S 6.9939     -2.4044     -4.7744
S 3.2311     -1.4443     -7.3496
Au -5.3144      -6.983     -1.4225
S -3.8699     -7.4523     -3.1848
S -6.7589     -6.5136     0.33984
Au -2.5597      -7.878      1.4225
S -4.2661     -7.3236   -0.069389
S -0.85334     -8.4324      2.9144
Au 0.19494     -8.7731     -1.4225
S 1.6395     -9.2424     -3.1848
S -1.2496     -8.3037     0.33984
Au 4.999     -7.2121     -1.4225
S 5.8917     -5.9834     -3.1848
S 4.1062     -8.4409     0.33984
Au 6.7014     -4.8689      1.4225
S 5.6468     -6.3204   -0.069389
S 7.756     -3.4173      2.9144
Au 8.4039     -2.5256     -1.4225
S 9.2967     -1.2968     -3.1848
S 7.5112     -3.7544     0.33984
Au 8.4039      2.5256     -1.4225
S 7.5112      3.7544     -3.1848
S 9.2967      1.2968     0.33984
Au 6.7014      4.8689      1.4225
S 7.756      3.4173   -0.069389
S 5.6468      6.3204      2.9144
Au 4.999      7.2121     -1.4225
S 4.1062      8.4409     -3.1848
S 5.8917      5.9834     0.33984
Au 0.19494      8.7731     -1.4225
S -1.2496      8.3037     -3.1848
S 1.6395      9.2424     0.33984
Au -2.5597       7.878      1.4225
S -0.85334      8.4324   -0.069389
S -4.2661      7.3236      2.9144
Au -5.3144       6.983     -1.4225
S -6.7589      6.5136     -3.1848
S -3.8699      7.4523     0.33984
Au -8.2834      2.8964     -1.4225
S -8.2834      1.3776     -3.1848
S -8.2834      4.4153     0.33984
Au -8.2834           0      1.4225
S -8.2834      1.7942   -0.069389
S -8.2834     -1.7942      2.9144
Au -8.2834     -2.8964     -1.4225
S -8.2834     -4.4153     -3.1848
S -8.2834     -1.3776     0.33984
